data_image0
_chemical_formula_structural       Cu27
_chemical_formula_sum              "Cu27"
_cell_length_a       7.68186
_cell_length_b       7.68186
_cell_length_c       7.68186
_cell_angle_alpha    60
_cell_angle_beta     60
_cell_angle_gamma    60

_space_group_name_H-M_alt    "P 1"
_space_group_IT_number       1

loop_
  _space_group_symop_operation_xyz
  'x, y, z'

loop_
  _atom_site_type_symbol
  _atom_site_label
  _atom_site_symmetry_multiplicity
  _atom_site_fract_x
  _atom_site_fract_y
  _atom_site_fract_z
  _atom_site_occupancy
  Cu  Cu1       1.0  0.00000  0.00000  0.00000  1.0000
  Cu  Cu2       1.0  0.00000  0.00000  0.33333  1.0000
  Cu  Cu3       1.0  1.00000  1.00000  0.66667  1.0000
  Cu  Cu4       1.0  0.00000  0.33333  0.00000  1.0000
  Cu  Cu5       1.0  1.00000  0.33333  0.33333  1.0000
  Cu  Cu6       1.0  1.00000  0.33333  0.66667  1.0000
  Cu  Cu7       1.0  0.00000  0.66667  0.00000  1.0000
  Cu  Cu8       1.0  0.00000  0.66667  0.33333  1.0000
  Cu  Cu9       1.0  1.00000  0.66667  0.66667  1.0000
  Cu  Cu10      1.0  0.33333  0.00000  0.00000  1.0000
  Cu  Cu11      1.0  0.33333  0.00000  0.33333  1.0000
  Cu  Cu12      1.0  0.33333  1.00000  0.66667  1.0000
  Cu  Cu13      1.0  0.33333  0.33333  0.00000  1.0000
  Cu  Cu14      1.0  0.33333  0.33333  0.33333  1.0000
  Cu  Cu15      1.0  0.33333  0.33333  0.66667  1.0000
  Cu  Cu16      1.0  0.33333  0.66667  0.00000  1.0000
  Cu  Cu17      1.0  0.33333  0.66667  0.33333  1.0000
  Cu  Cu18      1.0  0.33333  0.66667  0.66667  1.0000
  Cu  Cu19      1.0  0.66667  0.00000  0.00000  1.0000
  Cu  Cu20      1.0  0.66667  0.00000  0.33333  1.0000
  Cu  Cu21      1.0  0.66667  1.00000  0.66667  1.0000
  Cu  Cu22      1.0  0.66667  0.33333  0.00000  1.0000
  Cu  Cu23      1.0  0.66667  0.33333  0.33333  1.0000
  Cu  Cu24      1.0  0.66667  0.33333  0.66667  1.0000
  Cu  Cu25      1.0  0.66667  0.66667  0.00000  1.0000
  Cu  Cu26      1.0  0.66667  0.66667  0.33333  1.0000
  Cu  Cu27      1.0  0.66667  0.66667  0.66667  1.0000
